Version 4
SHEET 1 1420 680
WIRE 160 32 160 0
WIRE -272 128 -272 96
WIRE 160 128 160 112
WIRE 160 128 144 128
WIRE 400 128 160 128
WIRE 400 160 400 128
WIRE 160 176 160 128
WIRE 256 192 240 192
WIRE 352 192 336 192
WIRE 288 224 288 208
WIRE 352 240 352 192
WIRE 352 240 320 240
WIRE 160 256 160 240
WIRE 240 256 240 192
WIRE 240 256 160 256
WIRE 256 256 240 256
WIRE 400 272 400 240
WIRE 400 272 320 272
WIRE 400 336 400 272
WIRE 400 448 400 416
FLAG 160 0 COM
FLAG 400 448 0
FLAG -272 208 0
FLAG -272 96 COM
FLAG 288 208 COM
FLAG 80 128 0
FLAG 288 288 0
SYMBOL References\\LT1634-1.25 160 208 R0
WINDOW 3 -86 30 Left 2
WINDOW 0 -261 -11 Left 2
SYMATTR InstName U1
SYMBOL res 144 16 R0
WINDOW 0 -239 127 Left 2
WINDOW 3 -12 39 VRight 2
SYMATTR InstName R1
SYMATTR Value 5k
SYMBOL res 384 144 R0
WINDOW 0 -502 173 Left 2
WINDOW 3 42 51 Left 2
SYMATTR InstName R2
SYMATTR Value 10k tc={TC}
SYMBOL res 384 320 R0
WINDOW 0 -482 39 Left 2
WINDOW 3 36 50 Left 2
SYMATTR InstName R3
SYMATTR Value 20k
SYMBOL Opamps\\LTC2054 288 256 M0
WINDOW 0 370 -7 Left 2
WINDOW 3 -48 76 Left 2
SYMATTR InstName U2
SYMBOL voltage -272 112 R0
WINDOW 123 0 0 Left 2
WINDOW 39 0 0 Left 2
SYMATTR InstName V1
SYMATTR Value 4.5
SYMBOL res 352 176 R90
WINDOW 0 14 508 VBottom 2
WINDOW 3 -25 60 VTop 2
SYMATTR InstName R4
SYMATTR Value 20k
SYMBOL cap 144 112 R90
WINDOW 0 5 237 VBottom 2
WINDOW 3 32 32 VTop 2
SYMATTR InstName C1
SYMATTR Value 100n
TEXT -306 472 Left 2 !.dc temp 0 60
TEXT 424 224 Left 2 !.step param TC list -5e-6 5e-6
