Version 4
SHEET 1 880 680
WIRE 160 32 160 0
WIRE 160 128 160 112
WIRE 400 128 160 128
WIRE 400 160 400 128
WIRE 160 176 160 128
WIRE 352 192 240 192
WIRE 112 240 112 144
WIRE 352 240 352 192
WIRE 352 240 320 240
WIRE 160 256 160 240
WIRE 240 256 240 192
WIRE 240 256 160 256
WIRE 256 256 240 256
WIRE 400 272 400 240
WIRE 400 272 320 272
WIRE 400 336 400 272
FLAG 160 0 COM
FLAG 400 336 OUT
IOPIN 400 336 Out
SYMBOL References\\LT1634-1.25 160 208 R0
WINDOW 3 -308 68 Left 2
WINDOW 0 -261 -11 Left 2
SYMATTR InstName U1
SYMBOL res 144 16 R0
WINDOW 0 -239 127 Left 2
WINDOW 3 -204 62 Left 2
SYMATTR InstName R1
SYMBOL res 384 144 R0
WINDOW 0 -502 173 Left 2
WINDOW 3 42 51 Left 2
SYMATTR InstName R2
SYMBOL Opamps\\opamp 288 192 M0
WINDOW 0 335 53 Left 2
SYMATTR InstName U2
TEXT 96 232 VLeft 2 !Vref
LINE Normal 96 160 112 144
LINE Normal 128 160 112 144
